Circuit: * My Negative Coeficient Temperature Coefficient Resitors

Fatal Error: No analysis request found.
